powerflow/autotest/test_balanced_stepdown_D_D_phAB.glm
// $id$
//	Copyright (C) 2008 Battelle Memorial Institute
//  An example case of IEEE 4 node system using balanced step down D-D tranformer.
//  Using two phase line at the end node,
//  Using static load at the node 4.

clock {
	timestamp '2000-01-01 0:00:00';
	timezone EST+5EDT;
}
#define stylesheet="C:\Documents and Settings\D3Y074\My Documents\GridLab-D\trunk\VS2005\gridlabd-2_0";
#set relax_naming_rules=1

module powerflow {
	solver_method NR;
};
module assert;

object overhead_line_conductor:200{
	geometric_mean_radius 0.0244;
	resistance 0.306;
}

object overhead_line_conductor:201{
	geometric_mean_radius 0.00814;
	resistance 0.592;
}

object line_spacing:300{
	distance_AB 2.5;
	distance_BC 4.5;
	distance_AC 7.0;
	distance_AN 5.656854;
	distance_BN 4.272002;
	distance_CN 5.0;	
}

object line_spacing:301{
	distance_AB 2.5;
}

object line_configuration:400{
	conductor_A overhead_line_conductor:200;
	conductor_B overhead_line_conductor:200;
	conductor_C overhead_line_conductor:200;
	conductor_N overhead_line_conductor:201;
	spacing line_spacing:300;
}

object line_configuration:401{
	conductor_A overhead_line_conductor:200;
	conductor_B overhead_line_conductor:200;
	spacing line_spacing:301;
}

object transformer_configuration:500{
	connect_type DELTA_DELTA;
	install_type PADMOUNT;
	power_rating 6000;
	primary_voltage 12470;
	secondary_voltage 4160;
	resistance 0.01;
	reactance 0.06;
}

object node:1{
	phases "ABCD";
	bustype SWING;
	voltage_A +7199.558+0.000j;
	voltage_B -3599.779-6235.000j;
	voltage_C -3599.779+6235.000j;
	nominal_voltage 7200;
	
}

object overhead_line:12{
	phases "ABCD";
	from node:1;
	to node:2;
	length 2000;
	configuration line_configuration:400;
}

object node:2 {
	phases "ABCD";
	voltage_A +7199.558+0.000j;
	voltage_B -3599.779-6235.000j;
	voltage_C -3599.779+6235.000j;
	nominal_voltage 7200;	
	object complex_assert {
		target voltage_AB;
		within 5;
		value +12469+29.9969d ;
	};
	object complex_assert {
		target voltage_BC;
		within 5;
		value +12469.4-90.0008d ;
	};
	object complex_assert {
		target voltage_CA;
		within 5;
		value +12469.7+149.997d ;
	};		
}

object transformer:23 {
	phases "ABCD";
	from node:2;
	to node:3;
	configuration transformer_configuration:500;
}

object node:3 {
	phases "ABCD";
	voltage_A +2401.777+0.000j;
	voltage_B -1200.889-2080.000j;
	voltage_C -1200.889+2080.000j;
	nominal_voltage 2400;	
	object complex_assert {
		target voltage_AB;
		within 5;
		value +4158.21+29.9684d ;
	};
	object complex_assert {
		target voltage_BC;
		within 5;
		value +4158.47-90.0091d ;
	};
	object complex_assert {
		target voltage_CA;
		within 5;
		value +4159.75+149.977d ;
	};
}

object overhead_line:34 {
	phases "AB";
	from node:3;
	to load:4;
	length 2500;
	configuration line_configuration:401;
}

object load:4 {
	phases "AB";
	voltage_A +2401.777+0.000j;
	voltage_B -1200.889-2080.000j;
	constant_power_A +18000.000+8717.789j;
	constant_power_B +18000.000+8717.789j;
	nominal_voltage 2400;
	object complex_assert {
		target voltage_AB;
		within 5;
		value +4154.65+29.9334d ;
	};
	object complex_assert {	
		target voltage_BC;
		within 5;
		value +2400.41-120.144d ;
	};
	object complex_assert {	
		target voltage_CA;
		within 5;
		value +2395.01+179.937d ;
	};
}

